   385
C          -4.88759545       -5.11202406       5.986512
C          -3.89626264       -5.90258559       5.986512
C          -2.77970074       -6.50343317       5.986512
C          -1.57379697       -6.89525506       5.986512
C          -0.31731007       -7.06545777       5.986512
C          0.94937543       -7.00857086       5.986512
C          2.18554723       -6.72642272       5.986512
C          3.35147374       -6.22808181       5.986512
C          4.40968112       -5.52956523       5.986512
C          5.32615773       -4.65332387       5.986512
C          6.07144724       -3.62752086       5.986512
C          6.62159545       -2.48512634       5.986512
C          6.95892013       -1.26285781       5.986512
C          7.07257939       0.0       7.269336
C          7.07257939       0.0       8.55216
C          7.07257939       0.0       9.834984
C          6.9927561       1.05959492       8.15698691
C          7.00268812       0.9918358       9.27855528
C          7.02443858       0.82379721       10.29278105
C          7.01489471       -0.90146073       8.11077055
C          6.77853825       2.01811755       6.78394915
C          5.75683241       4.10855934       7.23425404
C          3.87641418       5.91563964       7.26825723
C          1.53672558       6.90361164       7.13239148
C          -0.97758092       7.00469234       7.2492899
C          -3.37760366       6.21394985       7.13110475
C          -5.33452064       4.64373436       7.24895303
C          -6.63826018       2.4402625       7.26480723
C          -7.07251461       -0.03026985       7.08191548
C          -6.6327201       -2.45528068       6.99832425
C          -5.37209598       -4.60021347       7.01708586
C          -3.41661122       -6.19258807       7.01935403
C          -1.02377881       -6.99808946       7.01990229
C          1.49989277       -6.91170752       7.02252835
C          3.84056829       -5.93897419       7.06412498
C          5.70426535       -4.18123619       7.23244752
C          6.76490155       -2.06336769       6.88628404
C          6.82778195       1.84466063       10.10862695
C          6.4105589       2.98766025       9.92126395
C          5.76476388       4.09742317       9.82006171
C          4.89775685       5.1022894       9.82335338
C          3.87030144       5.9196407       9.83107257
C          2.72301018       6.52737273       9.85015298
C          1.53544284       6.90389705       9.97196004
C          0.25637804       7.06793106       9.97799565
C          -0.97963315       7.00440562       9.85486056
C          -2.23477326       6.71022859       9.8535203
C          -3.37772217       6.21388543       9.97245478
C          -4.44903598       5.49795035       9.97672062
C          -5.33634042       4.64164305       9.85219078
C          -6.08929507       3.59748033       9.83278242
C          -6.64420349       2.42403368       9.82867275
C          -6.97623519       1.16340959       9.83268523
C          -7.0712519       -0.13702464       9.92685517
C          -6.92696185       -1.42778804       10.04794712
C          -6.55710233       -2.65062036       10.08522049
C          -5.97529433       -3.78381248       10.09578532
C          -5.20628407       -4.78706438       10.09781653
C          -4.27112491       -5.63727516       10.09709058
C          -3.19144698       -6.31158026       10.09863827
C          -2.00815138       -6.78149742       10.10014057
C          -0.76830308       -7.03072468       10.10038759
C          0.49288459       -7.05538404       10.10131123
C          1.73736018       -6.85587039       10.10707675
C          2.91308658       -6.44478904       10.1185325
C          3.97346961       -5.8508904       10.14264586
C          4.94512952       -5.05638935       10.03760055
C          5.76281896       -4.10015815       9.8625345
C          6.43354879       -2.93782728       9.89985602
C          6.87422301       -1.66326102       10.04138645
C          7.00461593       -0.97812827       6.9819811
C          2.72878818       6.52495933       7.25371391
C          7.01013965       -0.93772134       9.12460536
C          6.38962473       3.03217332       7.06481663
C          4.89597943       5.10399496       7.26401348
C          0.26079441       7.06776949       7.12518952
C          -2.23174625       6.71123595       7.25185887
C          -4.44572233       5.50063016       7.12460924
C          -6.08638136       3.60240768       7.26654144
C          -6.97105395       1.19406281       7.240713
C          -6.95673007       -1.27486701       6.97339358
C          -6.10050946       -3.57843032       7.01325867
C          -4.46745127       -5.48299721       7.01778805
C          -2.25956863       -6.70191979       7.01984328
C          0.23828815       -7.06856407       7.02070971
C          2.70769231       -6.53374178       7.03233536
C          4.86098377       -5.1373355       7.17241565
C          6.32882769       -3.15710615       7.04138835
C          6.99303774       1.05773454       7.03022832
C          3.27317455       6.26958592       8.54933386
C          5.38027886       4.59064033       8.52976259
C          -1.63171608       6.88177898       8.55196841
C          6.73912288       2.14606664       7.80034584
C          6.22377231       3.35946981       8.47902175
C          -3.95134124       5.86585728       8.04792773
C          -0.26787133       7.06750481       8.55164002
C          -5.72934318       4.14680671       8.54866223
C          4.39807636       5.53879983       8.54477345
C          -6.84928202       1.76315485       8.54092724
C          -7.0340851       -0.73690298       7.92039968
C          -6.42730291       -2.95146685       8.03449129
C          -4.99738532       -5.00474967       8.05009302
C          -2.92920558       -6.43747885       8.05221576
C          -0.48415967       -7.05598814       8.05286365
C          2.01812217       -6.77853687       8.05993946
C          4.2626302       -5.64370118       8.16001885
C          6.15652481       -3.4811753       8.51626846
C          -6.40029274       3.00959002       8.54677037
C          -4.83652534       5.16036838       8.54955503
C          6.76489135       -2.06340114       8.84844478
C          6.74582017       2.12492106       8.95813384
C          0.87044665       7.01881057       9.05541628
C          -3.95061033       5.86634957       9.05429534
C          -7.00104282       -1.00338357       8.9625796
C          -6.20783885       -3.38882221       9.07168421
C          -4.63515702       -5.34197516       9.07573522
C          -2.44962885       -6.63480955       9.08117073
C          0.03667992       -7.07248427       9.0817375
C          2.48385785       -6.62207138       9.09572685
C          4.46236961       -5.48713374       9.20276554
C          -2.95859377       6.42402538       8.55232011
C          1.98300995       6.78889172       8.55226797
C          -7.06372856       0.35372032       8.52050399
C          -6.8345369       -1.8194737       8.00151817
C          -5.80287314       -4.04327127       8.05015757
C          -4.03329968       -5.80980834       8.04955444
C          -1.72860837       -6.85808226       8.05312837
C          0.78887807       -7.02844582       8.05490383
C          3.20038085       -6.30705491       8.08306606
C          5.25833592       -4.72982902       8.58815674
C          6.58717675       -2.57497218       7.8468349
C          -6.71007561       -2.23523255       9.04803416
C          -5.50583533       -4.43927433       9.07647253
C          -3.59988715       -6.08787251       9.07878076
C          -1.22447992       -6.96577549       9.0821686
C          1.29625777       -6.95277606       9.0862116
C          3.57649325       -6.10164529       9.12625294
C          0.86993645       7.01887383       8.04919581
C          6.86289851       -1.7093868       7.75558541
C          7.07257939       0.0       5.986512
C          6.95892013       1.26285781       5.986512
C          6.62159545       2.48512634       5.986512
C          6.07144724       3.62752086       5.986512
C          5.32615773       4.65332387       5.986512
C          4.40968112       5.52956523       5.986512
C          3.35147374       6.22808181       5.986512
C          2.18554723       6.72642272       5.986512
C          0.94937543       7.00857086       5.986512
C          -0.31731007       7.06545777       5.986512
C          -1.57379697       6.89525506       5.986512
C          -2.77970074       6.50343317       5.986512
C          -3.89626264       5.90258559       5.986512
C          -4.88759545       5.11202406       5.986512
C          -5.72183692       4.15715786       5.986512
C          -6.37217385       3.06867719       5.986512
C          -6.81770386       1.88156671       5.986512
C          -7.04410726       0.63398113       5.986512
C          -7.04410726       -0.63398113       5.986512
C          -6.81770386       -1.88156671       5.986512
C          -6.37217385       -3.06867719       5.986512
C          -5.72183692       -4.15715786       5.986512
